data_crystal
 
_cell_length_a    11.71394
_cell_length_b    11.19114
_cell_length_c    23.08381
_cell_angle_alpha 90.00151
_cell_angle_beta  100.22358
_cell_angle_gamma 90.01209
 
_symmetry_space_group_name_Hall 'P 1'
_symmetry_space_group_name_H-M  'P 1'
 
loop_
_symmetry_equiv_pos_as_xyz
 'x,y,z' 
 
loop_
_atom_site_label
_atom_site_type_symbol
_atom_site_fract_x
_atom_site_fract_y
_atom_site_fract_z
_atom_site_charge
C          C       0.49084   0.12926   0.26158   0.0000000000
C          C       0.00714   0.37937   0.23737   0.0000000000
C          C       0.50693   0.37063   0.73748   0.0000000000
C          C       0.99073   0.12078   0.76159   0.0000000000
C          C       0.39882   0.10257   0.29806   0.0000000000
C          C       0.09955   0.35277   0.20109   0.0000000000
C          C       0.59930   0.39724   0.70117   0.0000000000
C          C       0.89868   0.14742   0.79806   0.0000000000
C          C       0.31039   0.18607   0.30003   0.0000000000
C          C       0.18804   0.43632   0.19924   0.0000000000
C          C       0.68771   0.31367   0.69929   0.0000000000
C          C       0.81023   0.06392   0.80004   0.0000000000
H          H       0.31200   0.26976   0.27631   0.0000000000
H          H       0.18622   0.02011   0.22286   0.0000000000
H          H       0.68587   0.22987   0.72290   0.0000000000
H          H       0.81182   0.48017   0.77635   0.0000000000
C          C       0.21981   0.16102   0.33005   0.0000000000
C          C       0.27902   0.41122   0.16948   0.0000000000
C          C       0.77866   0.33876   0.66951   0.0000000000
C          C       0.71966   0.08900   0.83005   0.0000000000
H          H       0.14889   0.22386   0.32986   0.0000000000
H          H       0.34999   0.47409   0.16981   0.0000000000
H          H       0.84958   0.27588   0.66980   0.0000000000
H          H       0.64869   0.02617   0.82986   0.0000000000
C          C       0.22069   0.05157   0.35941   0.0000000000
C          C       0.27846   0.30173   0.14018   0.0000000000
C          C       0.77815   0.44825   0.64022   0.0000000000
C          C       0.72059   0.19846   0.85941   0.0000000000
C          C       0.30991   0.46809   0.35935   0.0000000000
C          C       0.18919   0.21820   0.14013   0.0000000000
C          C       0.68892   0.03177   0.64017   0.0000000000
C          C       0.80985   0.28194   0.85935   0.0000000000
H          H       0.30784   0.38305   0.38187   0.0000000000
H          H       0.19147   0.13310   0.11768   0.0000000000
H          H       0.69120   0.11686   0.61771   0.0000000000
H          H       0.80784   0.36699   0.88187   0.0000000000
C          C       0.39813   0.49339   0.32787   0.0000000000
C          C       0.10062   0.24350   0.17139   0.0000000000
C          C       0.60037   0.00649   0.67146   0.0000000000
C          C       0.89805   0.25660   0.82786   0.0000000000
H          H       0.46512   0.42743   0.32479   0.0000000000
H          H       0.03364   0.17743   0.17437   0.0000000000
H          H       0.53339   0.07253   0.67444   0.0000000000
H          H       0.96510   0.32252   0.82478   0.0000000000
C          C       0.14891   0.05219   0.47093   0.0000000000
C          C       0.35054   0.30205   0.02877   0.0000000000
C          C       0.85038   0.44788   0.52882   0.0000000000
C          C       0.64887   0.19784   0.97094   0.0000000000
C          C       0.11905   0.16393   0.49085   0.0000000000
C          C       0.38026   0.41378   0.00878   0.0000000000
C          C       0.88024   0.33621   0.50883   0.0000000000
C          C       0.61903   0.08609   0.99086   0.0000000000
H          H       0.07450   0.22900   0.45991   0.0000000000
H          H       0.42499   0.47888   0.03967   0.0000000000
H          H       0.92488   0.27113   0.53975   0.0000000000
H          H       0.57444   0.02100   0.95992   0.0000000000
C          C       0.14691   0.18933   0.55076   0.0000000000
C          C       0.35200   0.43919   0.94889   0.0000000000
C          C       0.85219   0.31083   0.44892   0.0000000000
C          C       0.64695   0.06071   0.05076   0.0000000000
H          H       0.12292   0.27448   0.56778   0.0000000000
H          H       0.37586   0.02437   0.93183   0.0000000000
H          H       0.87620   0.22569   0.43189   0.0000000000
H          H       0.62297   0.47556   0.06780   0.0000000000
C          C       0.20317   0.10447   0.59043   0.0000000000
C          C       0.29551   0.35430   0.90928   0.0000000000
C          C       0.79580   0.39572   0.40929   0.0000000000
C          C       0.70324   0.14560   0.09043   0.0000000000
C          C       0.23522   0.49387   0.56964   0.0000000000
C          C       0.26381   0.24361   0.93013   0.0000000000
C          C       0.76404   0.00639   0.43014   0.0000000000
C          C       0.73527   0.25620   0.06964   0.0000000000
H          H       0.27868   0.42811   0.60076   0.0000000000
H          H       0.22025   0.17777   0.89907   0.0000000000
H          H       0.72064   0.07225   0.39906   0.0000000000
H          H       0.77875   0.32198   0.10075   0.0000000000
C          C       0.20894   0.46778   0.50963   0.0000000000
C          C       0.29045   0.21754   0.99014   0.0000000000
C          C       0.79046   0.03242   0.49016   0.0000000000
C          C       0.70894   0.28229   0.00962   0.0000000000
H          H       0.23195   0.38178   0.49314   0.0000000000
H          H       0.26765   0.13150   0.00667   0.0000000000
H          H       0.76759   0.11844   0.50668   0.0000000000
H          H       0.73192   0.36829   0.99312   0.0000000000
C          C       0.22801   0.13394   0.65486   0.0000000000
C          C       0.27014   0.38372   0.84487   0.0000000000
C          C       0.77040   0.36632   0.34487   0.0000000000
C          C       0.72807   0.11615   0.15485   0.0000000000
O          O       0.51015   0.23914   0.25286   0.0000000000
O          O       0.98587   0.48917   0.24505   0.0000000000
O          O       0.48559   0.26081   0.74507   0.0000000000
O          O       0.01009   0.01093   0.75287   0.0000000000
O          O       0.53948   0.04106   0.24158   0.0000000000
O          O       0.96012   0.29103   0.25824   0.0000000000
O          O       0.46009   0.45893   0.75847   0.0000000000
O          O       0.03937   0.20903   0.74161   0.0000000000
O          O       0.00546   0.09303   0.37278   0.0000000000
O          O       0.49390   0.34332   0.12687   0.0000000000
O          O       0.99358   0.40660   0.62693   0.0000000000
O          O       0.50536   0.15701   0.87280   0.0000000000
O          O       0.08925   0.38393   0.39240   0.0000000000
O          O       0.41035   0.13409   0.10748   0.0000000000
O          O       0.91021   0.11585   0.60753   0.0000000000
O          O       0.58926   0.36611   0.89242   0.0000000000
O          O       0.23567   0.24305   0.66991   0.0000000000
O          O       0.26082   0.49283   0.82975   0.0000000000
O          O       0.76108   0.25721   0.32973   0.0000000000
O          O       0.73578   0.00703   0.16991   0.0000000000
O          O       0.24408   0.04724   0.69184   0.0000000000
O          O       0.25527   0.29705   0.80789   0.0000000000
O          O       0.75540   0.45300   0.30791   0.0000000000
O          O       0.74406   0.20283   0.19184   0.0000000000
S          S       0.10395   0.01352   0.39549   0.0000000000
S          S       0.39548   0.26364   0.10427   0.0000000000
S          S       0.89523   0.48630   0.60431   0.0000000000
S          S       0.60389   0.23652   0.89551   0.0000000000
Ca         Ca      0.63441   0.37053   0.21925   0.0000000000
Ca         Ca      0.86439   0.12102   0.28057   0.0000000000
Ca         Ca      0.36420   0.12899   0.78063   0.0000000000
Ca         Ca      0.13428   0.37953   0.71924   0.0000000000
C          C       0.49084   0.62926   0.26158   0.0000000000
C          C       0.00714   0.87937   0.23737   0.0000000000
C          C       0.50693   0.87063   0.73748   0.0000000000
C          C       0.99073   0.62077   0.76159   0.0000000000
C          C       0.39882   0.60257   0.29806   0.0000000000
C          C       0.09955   0.85276   0.20109   0.0000000000
C          C       0.59930   0.89724   0.70117   0.0000000000
C          C       0.89868   0.64742   0.79806   0.0000000000
C          C       0.31039   0.68607   0.30003   0.0000000000
C          C       0.18804   0.93632   0.19924   0.0000000000
C          C       0.68772   0.81367   0.69929   0.0000000000
C          C       0.81023   0.56392   0.80004   0.0000000000
H          H       0.31200   0.76976   0.27631   0.0000000000
H          H       0.18622   0.52011   0.22286   0.0000000000
H          H       0.68586   0.72987   0.72290   0.0000000000
H          H       0.81182   0.98017   0.77635   0.0000000000
C          C       0.21981   0.66102   0.33005   0.0000000000
C          C       0.27902   0.91122   0.16948   0.0000000000
C          C       0.77866   0.83876   0.66951   0.0000000000
C          C       0.71966   0.58900   0.83005   0.0000000000
H          H       0.14889   0.72386   0.32986   0.0000000000
H          H       0.34999   0.97409   0.16981   0.0000000000
H          H       0.84959   0.77588   0.66980   0.0000000000
H          H       0.64869   0.52617   0.82986   0.0000000000
C          C       0.22069   0.55157   0.35941   0.0000000000
C          C       0.27846   0.80173   0.14018   0.0000000000
C          C       0.77815   0.94825   0.64022   0.0000000000
C          C       0.72058   0.69846   0.85941   0.0000000000
C          C       0.30991   0.96809   0.35935   0.0000000000
C          C       0.18919   0.71820   0.14013   0.0000000000
C          C       0.68892   0.53176   0.64017   0.0000000000
C          C       0.80985   0.78194   0.85935   0.0000000000
H          H       0.30784   0.88305   0.38187   0.0000000000
H          H       0.19147   0.63310   0.11768   0.0000000000
H          H       0.69120   0.61686   0.61771   0.0000000000
H          H       0.80784   0.86699   0.88187   0.0000000000
C          C       0.39813   0.99340   0.32787   0.0000000000
C          C       0.10062   0.74350   0.17139   0.0000000000
C          C       0.60037   0.50649   0.67146   0.0000000000
C          C       0.89805   0.75660   0.82786   0.0000000000
H          H       0.46512   0.92743   0.32479   0.0000000000
H          H       0.03364   0.67743   0.17437   0.0000000000
H          H       0.53339   0.57253   0.67444   0.0000000000
H          H       0.96510   0.82252   0.82478   0.0000000000
C          C       0.14891   0.55219   0.47093   0.0000000000
C          C       0.35054   0.80205   0.02877   0.0000000000
C          C       0.85038   0.94789   0.52882   0.0000000000
C          C       0.64886   0.69784   0.97094   0.0000000000
C          C       0.11905   0.66393   0.49085   0.0000000000
C          C       0.38026   0.91378   0.00878   0.0000000000
C          C       0.88024   0.83621   0.50883   0.0000000000
C          C       0.61903   0.58609   0.99086   0.0000000000
H          H       0.07450   0.72900   0.45991   0.0000000000
H          H       0.42499   0.97888   0.03967   0.0000000000
H          H       0.92488   0.77113   0.53974   0.0000000000
H          H       0.57444   0.52100   0.95992   0.0000000000
C          C       0.14691   0.68933   0.55076   0.0000000000
C          C       0.35200   0.93919   0.94889   0.0000000000
C          C       0.85219   0.81083   0.44892   0.0000000000
C          C       0.64695   0.56071   0.05076   0.0000000000
H          H       0.12292   0.77448   0.56778   0.0000000000
H          H       0.37586   0.52437   0.93183   0.0000000000
H          H       0.87620   0.72569   0.43189   0.0000000000
H          H       0.62297   0.97556   0.06780   0.0000000000
C          C       0.20317   0.60447   0.59043   0.0000000000
C          C       0.29551   0.85430   0.90928   0.0000000000
C          C       0.79580   0.89571   0.40929   0.0000000000
C          C       0.70324   0.64560   0.09043   0.0000000000
C          C       0.23522   0.99387   0.56964   0.0000000000
C          C       0.26381   0.74361   0.93013   0.0000000000
C          C       0.76404   0.50639   0.43014   0.0000000000
C          C       0.73527   0.75620   0.06964   0.0000000000
H          H       0.27868   0.92811   0.60076   0.0000000000
H          H       0.22025   0.67777   0.89907   0.0000000000
H          H       0.72064   0.57225   0.39906   0.0000000000
H          H       0.77875   0.82198   0.10075   0.0000000000
C          C       0.20894   0.96778   0.50963   0.0000000000
C          C       0.29045   0.71754   0.99014   0.0000000000
C          C       0.79046   0.53242   0.49016   0.0000000000
C          C       0.70894   0.78229   0.00962   0.0000000000
H          H       0.23195   0.88178   0.49314   0.0000000000
H          H       0.26765   0.63150   0.00667   0.0000000000
H          H       0.76759   0.61844   0.50667   0.0000000000
H          H       0.73192   0.86829   0.99312   0.0000000000
C          C       0.22801   0.63394   0.65486   0.0000000000
C          C       0.27014   0.88372   0.84487   0.0000000000
C          C       0.77040   0.86633   0.34487   0.0000000000
C          C       0.72807   0.61615   0.15485   0.0000000000
O          O       0.51016   0.73914   0.25286   0.0000000000
O          O       0.98587   0.98917   0.24505   0.0000000000
O          O       0.48559   0.76081   0.74507   0.0000000000
O          O       0.01010   0.51093   0.75287   0.0000000000
O          O       0.53948   0.54106   0.24158   0.0000000000
O          O       0.96012   0.79103   0.25824   0.0000000000
O          O       0.46009   0.95893   0.75847   0.0000000000
O          O       0.03937   0.70903   0.74161   0.0000000000
O          O       0.00546   0.59303   0.37278   0.0000000000
O          O       0.49390   0.84332   0.12687   0.0000000000
O          O       0.99359   0.90660   0.62693   0.0000000000
O          O       0.50536   0.65701   0.87280   0.0000000000
O          O       0.08925   0.88393   0.39240   0.0000000000
O          O       0.41035   0.63409   0.10748   0.0000000000
O          O       0.91021   0.61585   0.60753   0.0000000000
O          O       0.58926   0.86611   0.89242   0.0000000000
O          O       0.23567   0.74305   0.66991   0.0000000000
O          O       0.26082   0.99283   0.82975   0.0000000000
O          O       0.76108   0.75721   0.32973   0.0000000000
O          O       0.73578   0.50703   0.16991   0.0000000000
O          O       0.24408   0.54724   0.69184   0.0000000000
O          O       0.25527   0.79705   0.80789   0.0000000000
O          O       0.75540   0.95300   0.30791   0.0000000000
O          O       0.74406   0.70283   0.19184   0.0000000000
S          S       0.10395   0.51352   0.39549   0.0000000000
S          S       0.39548   0.76364   0.10427   0.0000000000
S          S       0.89523   0.98630   0.60431   0.0000000000
S          S       0.60389   0.73652   0.89551   0.0000000000
Ca         Ca      0.63441   0.87053   0.21925   0.0000000000
Ca         Ca      0.86439   0.62102   0.28057   0.0000000000
Ca         Ca      0.36420   0.62899   0.78063   0.0000000000
Ca         Ca      0.13428   0.87953   0.71924   0.0000000000
