data_crystal
 
_cell_length_a    41.52620
_cell_length_b    41.52620
_cell_length_c    17.49160
_cell_angle_alpha 90.00000
_cell_angle_beta  90.00000
_cell_angle_gamma 120.00000
 
_symmetry_space_group_name_Hall 'P 1'
_symmetry_space_group_name_H-M  'P 1'
 
loop_
_symmetry_equiv_pos_as_xyz
 'x,y,z' 
 
loop_
_atom_site_label
_atom_site_type_symbol
_atom_site_fract_x
_atom_site_fract_y
_atom_site_fract_z
_atom_site_charge
Zn         Zn      0.37170   0.40178   0.65940   0.0000000000
O          O       0.44036   0.48834   0.66172   0.0000000000
O          O       0.29409   0.40576   0.65650   0.0000000000
O          O       0.32984   0.38893   0.59358   0.0000000000
O          O       0.37194   0.35689   0.68635   0.0000000000
O          O       0.41627   0.43381   0.60158   0.0000000000
C          C       0.44022   0.46764   0.60950   0.0000000000
C          C       0.47125   0.48438   0.55240   0.0000000000
C          C       0.47281   0.46394   0.49270   0.0000000000
H          H       0.45420   0.43870   0.48760   0.0000000000
C          C       0.49836   0.52102   0.55890   0.0000000000
H          H       0.49770   0.53540   0.59890   0.0000000000
C          C       0.30300   0.39458   0.59820   0.0000000000
C          C       0.28037   0.38864   0.52820   0.0000000000
C          C       0.25427   0.39989   0.52300   0.0000000000
H          H       0.24980   0.41070   0.56510   0.0000000000
C          C       0.23496   0.39527   0.45670   0.0000000000
H          H       0.21720   0.40270   0.45550   0.0000000000
C          C       0.24069   0.38026   0.39220   0.0000000000
C          C       0.26575   0.36747   0.39840   0.0000000000
H          H       0.26960   0.35580   0.35700   0.0000000000
C          C       0.28522   0.37195   0.46630   0.0000000000
H          H       0.30190   0.36330   0.46900   0.0000000000
C          C       0.22157   0.37804   0.31910   0.0000000000
C          C       0.18659   0.37495   0.31830   0.0000000000
H          H       0.17480   0.37350   0.36440   0.0000000000
C          C       0.10910   0.35900   0.18700   0.0000000000
H          H       0.11620   0.35100   0.14370   0.0000000000
C          C       0.07570   0.35760   0.18960   0.0000000000
H          H       0.05950   0.34680   0.14870   0.0000000000
C          C       0.08710   0.38460   0.31370   0.0000000000
H          H       0.08000   0.39250   0.35710   0.0000000000
C          C       0.12090   0.38550   0.30920   0.0000000000
H          H       0.13700   0.39600   0.35040   0.0000000000
Zn         Zn      0.59822   0.96992   0.65940   0.0000000000
O          O       0.51166   0.95202   0.66172   0.0000000000
O          O       0.59424   0.88833   0.65650   0.0000000000
O          O       0.61107   0.94091   0.59358   0.0000000000
O          O       0.64311   0.01505   0.68635   0.0000000000
O          O       0.56619   0.98246   0.60158   0.0000000000
C          C       0.53236   0.97258   0.60950   0.0000000000
C          C       0.51562   0.98687   0.55240   0.0000000000
C          C       0.53606   0.00887   0.49270   0.0000000000
H          H       0.56130   0.01550   0.48760   0.0000000000
C          C       0.47898   0.97734   0.55890   0.0000000000
H          H       0.46460   0.96230   0.59890   0.0000000000
C          C       0.60542   0.90842   0.59820   0.0000000000
C          C       0.61136   0.89173   0.52820   0.0000000000
C          C       0.60011   0.85438   0.52300   0.0000000000
H          H       0.58930   0.83910   0.56510   0.0000000000
C          C       0.60473   0.83969   0.45670   0.0000000000
H          H       0.59730   0.81450   0.45550   0.0000000000
C          C       0.61974   0.86043   0.39220   0.0000000000
C          C       0.63253   0.89828   0.39840   0.0000000000
H          H       0.64420   0.91380   0.35700   0.0000000000
C          C       0.62805   0.91327   0.46630   0.0000000000
H          H       0.63670   0.93860   0.46900   0.0000000000
C          C       0.62196   0.84353   0.31910   0.0000000000
C          C       0.62505   0.81164   0.31830   0.0000000000
H          H       0.62650   0.80130   0.36440   0.0000000000
Zn         Zn      0.03008   0.62830   0.65940   0.0000000000
O          O       0.04798   0.55964   0.66172   0.0000000000
O          O       0.11167   0.70591   0.65650   0.0000000000
O          O       0.05909   0.67016   0.59358   0.0000000000
O          O       0.98495   0.62806   0.68635   0.0000000000
O          O       0.01754   0.58373   0.60158   0.0000000000
C          C       0.02742   0.55978   0.60950   0.0000000000
C          C       0.01313   0.52875   0.55240   0.0000000000
C          C       0.99113   0.52719   0.49270   0.0000000000
H          H       0.98450   0.54580   0.48760   0.0000000000
C          C       0.02266   0.50164   0.55890   0.0000000000
H          H       0.03770   0.50230   0.59890   0.0000000000
C          C       0.09158   0.69700   0.59820   0.0000000000
C          C       0.10827   0.71963   0.52820   0.0000000000
C          C       0.14562   0.74573   0.52300   0.0000000000
H          H       0.16090   0.75020   0.56510   0.0000000000
C          C       0.16031   0.76504   0.45670   0.0000000000
H          H       0.18550   0.78280   0.45550   0.0000000000
C          C       0.13957   0.75931   0.39220   0.0000000000
C          C       0.10172   0.73425   0.39840   0.0000000000
H          H       0.08620   0.73040   0.35700   0.0000000000
C          C       0.08673   0.71478   0.46630   0.0000000000
H          H       0.06140   0.69810   0.46900   0.0000000000
C          C       0.15647   0.77843   0.31910   0.0000000000
C          C       0.18836   0.81341   0.31830   0.0000000000
H          H       0.19870   0.82520   0.36440   0.0000000000
C          C       0.24990   0.89090   0.18700   0.0000000000
H          H       0.23480   0.88380   0.14370   0.0000000000
C          C       0.28190   0.92430   0.18960   0.0000000000
H          H       0.28730   0.94050   0.14870   0.0000000000
C          C       0.29750   0.91290   0.31370   0.0000000000
H          H       0.31250   0.92000   0.35710   0.0000000000
C          C       0.26460   0.87910   0.30920   0.0000000000
H          H       0.25900   0.86300   0.35040   0.0000000000
Zn         Zn      0.62830   0.59822   0.15940   0.0000000000
O          O       0.55964   0.51166   0.16172   0.0000000000
O          O       0.70591   0.59424   0.15650   0.0000000000
O          O       0.67016   0.61107   0.09358   0.0000000000
O          O       0.62806   0.64311   0.18635   0.0000000000
O          O       0.58373   0.56619   0.10158   0.0000000000
C          C       0.55978   0.53236   0.10950   0.0000000000
C          C       0.52875   0.51562   0.05240   0.0000000000
C          C       0.52719   0.53606   0.99270   0.0000000000
H          H       0.54580   0.56130   0.98760   0.0000000000
C          C       0.50164   0.47898   0.05890   0.0000000000
H          H       0.50230   0.46460   0.09890   0.0000000000
C          C       0.69700   0.60542   0.09820   0.0000000000
C          C       0.71963   0.61136   0.02820   0.0000000000
C          C       0.74573   0.60011   0.02300   0.0000000000
H          H       0.75020   0.58930   0.06510   0.0000000000
C          C       0.76504   0.60473   0.95670   0.0000000000
H          H       0.78280   0.59730   0.95550   0.0000000000
C          C       0.75931   0.61974   0.89220   0.0000000000
C          C       0.73425   0.63253   0.89840   0.0000000000
H          H       0.73040   0.64420   0.85700   0.0000000000
C          C       0.71478   0.62805   0.96630   0.0000000000
H          H       0.69810   0.63670   0.96900   0.0000000000
C          C       0.77843   0.62196   0.81910   0.0000000000
C          C       0.81341   0.62505   0.81830   0.0000000000
H          H       0.82520   0.62650   0.86440   0.0000000000
C          C       0.67840   0.46140   0.28220   0.0000000000
H          H       0.69670   0.48380   0.30260   0.0000000000
C          C       0.68300   0.43100   0.28300   0.0000000000
H          H       0.70410   0.43260   0.30530   0.0000000000
C          C       0.62340   0.39430   0.22420   0.0000000000
H          H       0.60440   0.37160   0.20660   0.0000000000
C          C       0.61870   0.42481   0.22380   0.0000000000
H          H       0.59660   0.42240   0.20540   0.0000000000
Zn         Zn      0.40178   0.03008   0.15940   0.0000000000
O          O       0.48834   0.04798   0.16172   0.0000000000
O          O       0.40576   0.11167   0.15650   0.0000000000
O          O       0.38893   0.05909   0.09358   0.0000000000
O          O       0.35689   0.98495   0.18635   0.0000000000
O          O       0.43381   0.01754   0.10158   0.0000000000
C          C       0.46764   0.02742   0.10950   0.0000000000
C          C       0.48438   0.01313   0.05240   0.0000000000
C          C       0.46394   0.99113   0.99270   0.0000000000
H          H       0.43870   0.98450   0.98760   0.0000000000
C          C       0.52102   0.02266   0.05890   0.0000000000
H          H       0.53540   0.03770   0.09890   0.0000000000
C          C       0.39458   0.09158   0.09820   0.0000000000
C          C       0.38864   0.10827   0.02820   0.0000000000
C          C       0.39989   0.14562   0.02300   0.0000000000
H          H       0.41070   0.16090   0.06510   0.0000000000
C          C       0.39527   0.16031   0.95670   0.0000000000
H          H       0.40270   0.18550   0.95550   0.0000000000
C          C       0.38026   0.13957   0.89220   0.0000000000
C          C       0.36747   0.10172   0.89840   0.0000000000
H          H       0.35580   0.08620   0.85700   0.0000000000
C          C       0.37195   0.08673   0.96630   0.0000000000
H          H       0.36330   0.06140   0.96900   0.0000000000
C          C       0.37804   0.15647   0.81910   0.0000000000
C          C       0.37495   0.18836   0.81830   0.0000000000
H          H       0.37350   0.19870   0.86440   0.0000000000
Zn         Zn      0.96992   0.37170   0.15940   0.0000000000
O          O       0.95202   0.44036   0.16172   0.0000000000
O          O       0.88833   0.29409   0.15650   0.0000000000
O          O       0.94091   0.32984   0.09358   0.0000000000
O          O       0.01505   0.37194   0.18635   0.0000000000
O          O       0.98246   0.41627   0.10158   0.0000000000
C          C       0.97258   0.44022   0.10950   0.0000000000
C          C       0.98687   0.47125   0.05240   0.0000000000
C          C       0.00887   0.47281   0.99270   0.0000000000
H          H       0.01550   0.45420   0.98760   0.0000000000
C          C       0.97734   0.49836   0.05890   0.0000000000
H          H       0.96230   0.49770   0.09890   0.0000000000
C          C       0.90842   0.30300   0.09820   0.0000000000
C          C       0.89173   0.28037   0.02820   0.0000000000
C          C       0.85438   0.25427   0.02300   0.0000000000
H          H       0.83910   0.24980   0.06510   0.0000000000
C          C       0.83969   0.23496   0.95670   0.0000000000
H          H       0.81450   0.21720   0.95550   0.0000000000
C          C       0.86043   0.24069   0.89220   0.0000000000
C          C       0.89828   0.26575   0.89840   0.0000000000
H          H       0.91380   0.26960   0.85700   0.0000000000
C          C       0.91327   0.28522   0.96630   0.0000000000
H          H       0.93860   0.30190   0.96900   0.0000000000
C          C       0.84353   0.22157   0.81910   0.0000000000
C          C       0.81164   0.18659   0.81830   0.0000000000
H          H       0.80130   0.17480   0.86440   0.0000000000
Zn         Zn      0.62830   0.59822   0.34060   0.0000000000
O          O       0.55964   0.51166   0.33828   0.0000000000
O          O       0.70591   0.59424   0.34350   0.0000000000
O          O       0.67016   0.61107   0.40642   0.0000000000
O          O       0.62806   0.64311   0.31365   0.0000000000
O          O       0.58373   0.56619   0.39842   0.0000000000
C          C       0.55978   0.53236   0.39050   0.0000000000
C          C       0.52875   0.51562   0.44760   0.0000000000
C          C       0.52719   0.53606   0.50730   0.0000000000
H          H       0.54580   0.56130   0.51240   0.0000000000
C          C       0.50164   0.47898   0.44110   0.0000000000
H          H       0.50230   0.46460   0.40110   0.0000000000
C          C       0.69700   0.60542   0.40180   0.0000000000
C          C       0.71963   0.61136   0.47180   0.0000000000
C          C       0.74573   0.60011   0.47700   0.0000000000
H          H       0.75020   0.58930   0.43490   0.0000000000
C          C       0.76504   0.60473   0.54330   0.0000000000
H          H       0.78280   0.59730   0.54450   0.0000000000
C          C       0.75931   0.61974   0.60780   0.0000000000
C          C       0.73425   0.63253   0.60160   0.0000000000
H          H       0.73040   0.64420   0.64300   0.0000000000
C          C       0.71478   0.62805   0.53370   0.0000000000
H          H       0.69810   0.63670   0.53100   0.0000000000
C          C       0.77843   0.62196   0.68090   0.0000000000
C          C       0.81341   0.62505   0.68170   0.0000000000
H          H       0.82520   0.62650   0.63560   0.0000000000
C          C       0.89090   0.64100   0.81300   0.0000000000
H          H       0.88380   0.64900   0.85630   0.0000000000
C          C       0.92430   0.64240   0.81040   0.0000000000
H          H       0.94050   0.65320   0.85130   0.0000000000
C          C       0.91290   0.61540   0.68630   0.0000000000
H          H       0.92000   0.60750   0.64290   0.0000000000
C          C       0.87910   0.61450   0.69080   0.0000000000
H          H       0.86300   0.60400   0.64960   0.0000000000
Zn         Zn      0.40178   0.03008   0.34060   0.0000000000
O          O       0.48834   0.04798   0.33828   0.0000000000
O          O       0.40576   0.11167   0.34350   0.0000000000
O          O       0.38893   0.05909   0.40642   0.0000000000
O          O       0.35689   0.98495   0.31365   0.0000000000
O          O       0.43381   0.01754   0.39842   0.0000000000
C          C       0.46764   0.02742   0.39050   0.0000000000
C          C       0.48438   0.01313   0.44760   0.0000000000
C          C       0.46394   0.99113   0.50730   0.0000000000
H          H       0.43870   0.98450   0.51240   0.0000000000
C          C       0.52102   0.02266   0.44110   0.0000000000
H          H       0.53540   0.03770   0.40110   0.0000000000
C          C       0.39458   0.09158   0.40180   0.0000000000
C          C       0.38864   0.10827   0.47180   0.0000000000
C          C       0.39989   0.14562   0.47700   0.0000000000
H          H       0.41070   0.16090   0.43490   0.0000000000
C          C       0.39527   0.16031   0.54330   0.0000000000
H          H       0.40270   0.18550   0.54450   0.0000000000
C          C       0.38026   0.13957   0.60780   0.0000000000
C          C       0.36747   0.10172   0.60160   0.0000000000
H          H       0.35580   0.08620   0.64300   0.0000000000
C          C       0.37195   0.08673   0.53370   0.0000000000
H          H       0.36330   0.06140   0.53100   0.0000000000
C          C       0.37804   0.15647   0.68090   0.0000000000
C          C       0.37495   0.18836   0.68170   0.0000000000
H          H       0.37350   0.19870   0.63560   0.0000000000
C          C       0.35900   0.24990   0.81300   0.0000000000
H          H       0.35100   0.23480   0.85630   0.0000000000
C          C       0.35760   0.28190   0.81040   0.0000000000
H          H       0.34680   0.28730   0.85130   0.0000000000
C          C       0.38460   0.29750   0.68630   0.0000000000
H          H       0.39250   0.31250   0.64290   0.0000000000
C          C       0.38550   0.26460   0.69080   0.0000000000
H          H       0.39600   0.25900   0.64960   0.0000000000
C          C       0.53860   0.21700   0.21780   0.0000000000
H          H       0.51620   0.21290   0.19740   0.0000000000
C          C       0.56900   0.25200   0.21700   0.0000000000
H          H       0.56740   0.27150   0.19470   0.0000000000
C          C       0.60570   0.22910   0.27580   0.0000000000
H          H       0.62840   0.23280   0.29340   0.0000000000
C          C       0.57519   0.19389   0.27620   0.0000000000
H          H       0.57760   0.17420   0.29460   0.0000000000
Zn         Zn      0.96992   0.37170   0.34060   0.0000000000
O          O       0.95202   0.44036   0.33828   0.0000000000
O          O       0.88833   0.29409   0.34350   0.0000000000
O          O       0.94091   0.32984   0.40642   0.0000000000
O          O       0.01505   0.37194   0.31365   0.0000000000
O          O       0.98246   0.41627   0.39842   0.0000000000
C          C       0.97258   0.44022   0.39050   0.0000000000
C          C       0.98687   0.47125   0.44760   0.0000000000
C          C       0.00887   0.47281   0.50730   0.0000000000
H          H       0.01550   0.45420   0.51240   0.0000000000
C          C       0.97734   0.49836   0.44110   0.0000000000
H          H       0.96230   0.49770   0.40110   0.0000000000
C          C       0.90842   0.30300   0.40180   0.0000000000
C          C       0.89173   0.28037   0.47180   0.0000000000
C          C       0.85438   0.25427   0.47700   0.0000000000
H          H       0.83910   0.24980   0.43490   0.0000000000
C          C       0.83969   0.23496   0.54330   0.0000000000
H          H       0.81450   0.21720   0.54450   0.0000000000
C          C       0.86043   0.24069   0.60780   0.0000000000
C          C       0.89828   0.26575   0.60160   0.0000000000
H          H       0.91380   0.26960   0.64300   0.0000000000
C          C       0.91327   0.28522   0.53370   0.0000000000
H          H       0.93860   0.30190   0.53100   0.0000000000
C          C       0.84353   0.22157   0.68090   0.0000000000
C          C       0.81164   0.18659   0.68170   0.0000000000
H          H       0.80130   0.17480   0.63560   0.0000000000
C          C       0.75010   0.10910   0.81300   0.0000000000
H          H       0.76520   0.11620   0.85630   0.0000000000
C          C       0.71810   0.07570   0.81040   0.0000000000
H          H       0.71270   0.05950   0.85130   0.0000000000
C          C       0.70250   0.08710   0.68630   0.0000000000
H          H       0.68750   0.08000   0.64290   0.0000000000
C          C       0.73540   0.12090   0.69080   0.0000000000
H          H       0.74100   0.13700   0.64960   0.0000000000
C          C       0.78300   0.32160   0.21780   0.0000000000
H          H       0.78710   0.30330   0.19740   0.0000000000
C          C       0.74800   0.31700   0.21700   0.0000000000
H          H       0.72850   0.29590   0.19470   0.0000000000
C          C       0.77090   0.37660   0.27580   0.0000000000
H          H       0.76720   0.39560   0.29340   0.0000000000
C          C       0.80611   0.38130   0.27620   0.0000000000
H          H       0.82580   0.40340   0.29460   0.0000000000
Zn         Zn      0.37170   0.40178   0.84060   0.0000000000
O          O       0.44036   0.48834   0.83828   0.0000000000
O          O       0.29409   0.40576   0.84350   0.0000000000
O          O       0.32984   0.38893   0.90642   0.0000000000
O          O       0.37194   0.35689   0.81365   0.0000000000
O          O       0.41627   0.43381   0.89842   0.0000000000
C          C       0.44022   0.46764   0.89050   0.0000000000
C          C       0.47125   0.48438   0.94760   0.0000000000
C          C       0.47281   0.46394   0.00730   0.0000000000
H          H       0.45420   0.43870   0.01240   0.0000000000
C          C       0.49836   0.52102   0.94110   0.0000000000
H          H       0.49770   0.53540   0.90110   0.0000000000
C          C       0.30300   0.39458   0.90180   0.0000000000
C          C       0.28037   0.38864   0.97180   0.0000000000
C          C       0.25427   0.39989   0.97700   0.0000000000
H          H       0.24980   0.41070   0.93490   0.0000000000
C          C       0.23496   0.39527   0.04330   0.0000000000
H          H       0.21720   0.40270   0.04450   0.0000000000
C          C       0.24069   0.38026   0.10780   0.0000000000
C          C       0.26575   0.36747   0.10160   0.0000000000
H          H       0.26960   0.35580   0.14300   0.0000000000
C          C       0.28522   0.37195   0.03370   0.0000000000
H          H       0.30190   0.36330   0.03100   0.0000000000
C          C       0.22157   0.37804   0.18090   0.0000000000
C          C       0.18659   0.37495   0.18170   0.0000000000
H          H       0.17480   0.37350   0.13560   0.0000000000
C          C       0.32160   0.53860   0.71780   0.0000000000
H          H       0.30330   0.51620   0.69740   0.0000000000
C          C       0.31700   0.56900   0.71700   0.0000000000
H          H       0.29590   0.56740   0.69470   0.0000000000
C          C       0.37660   0.60570   0.77580   0.0000000000
H          H       0.39560   0.62840   0.79340   0.0000000000
C          C       0.38130   0.57519   0.77620   0.0000000000
H          H       0.40340   0.57760   0.79460   0.0000000000
Zn         Zn      0.59822   0.96992   0.84060   0.0000000000
O          O       0.51166   0.95202   0.83828   0.0000000000
O          O       0.59424   0.88833   0.84350   0.0000000000
O          O       0.61107   0.94091   0.90642   0.0000000000
O          O       0.64311   0.01505   0.81365   0.0000000000
O          O       0.56619   0.98246   0.89842   0.0000000000
C          C       0.53236   0.97258   0.89050   0.0000000000
C          C       0.51562   0.98687   0.94760   0.0000000000
C          C       0.53606   0.00887   0.00730   0.0000000000
H          H       0.56130   0.01550   0.01240   0.0000000000
C          C       0.47898   0.97734   0.94110   0.0000000000
H          H       0.46460   0.96230   0.90110   0.0000000000
C          C       0.60542   0.90842   0.90180   0.0000000000
C          C       0.61136   0.89173   0.97180   0.0000000000
C          C       0.60011   0.85438   0.97700   0.0000000000
H          H       0.58930   0.83910   0.93490   0.0000000000
C          C       0.60473   0.83969   0.04330   0.0000000000
H          H       0.59730   0.81450   0.04450   0.0000000000
C          C       0.61974   0.86043   0.10780   0.0000000000
C          C       0.63253   0.89828   0.10160   0.0000000000
H          H       0.64420   0.91380   0.14300   0.0000000000
C          C       0.62805   0.91327   0.03370   0.0000000000
H          H       0.63670   0.93860   0.03100   0.0000000000
C          C       0.62196   0.84353   0.18090   0.0000000000
C          C       0.62505   0.81164   0.18170   0.0000000000
H          H       0.62650   0.80130   0.13560   0.0000000000
C          C       0.64100   0.75010   0.31300   0.0000000000
H          H       0.64900   0.76520   0.35630   0.0000000000
C          C       0.64240   0.71810   0.31040   0.0000000000
H          H       0.65320   0.71270   0.35130   0.0000000000
C          C       0.61540   0.70250   0.18630   0.0000000000
H          H       0.60750   0.68750   0.14290   0.0000000000
C          C       0.61450   0.73540   0.19080   0.0000000000
H          H       0.60400   0.74100   0.14960   0.0000000000
C          C       0.46140   0.78300   0.71780   0.0000000000
H          H       0.48380   0.78710   0.69740   0.0000000000
C          C       0.43100   0.74800   0.71700   0.0000000000
H          H       0.43260   0.72850   0.69470   0.0000000000
C          C       0.39430   0.77090   0.77580   0.0000000000
H          H       0.37160   0.76720   0.79340   0.0000000000
C          C       0.42481   0.80611   0.77620   0.0000000000
H          H       0.42240   0.82580   0.79460   0.0000000000
Zn         Zn      0.03008   0.62830   0.84060   0.0000000000
O          O       0.04798   0.55964   0.83828   0.0000000000
O          O       0.11167   0.70591   0.84350   0.0000000000
O          O       0.05909   0.67016   0.90642   0.0000000000
O          O       0.98495   0.62806   0.81365   0.0000000000
O          O       0.01754   0.58373   0.89842   0.0000000000
C          C       0.02742   0.55978   0.89050   0.0000000000
C          C       0.01313   0.52875   0.94760   0.0000000000
C          C       0.99113   0.52719   0.00730   0.0000000000
H          H       0.98450   0.54580   0.01240   0.0000000000
C          C       0.02266   0.50164   0.94110   0.0000000000
H          H       0.03770   0.50230   0.90110   0.0000000000
C          C       0.09158   0.69700   0.90180   0.0000000000
C          C       0.10827   0.71963   0.97180   0.0000000000
C          C       0.14562   0.74573   0.97700   0.0000000000
H          H       0.16090   0.75020   0.93490   0.0000000000
C          C       0.16031   0.76504   0.04330   0.0000000000
H          H       0.18550   0.78280   0.04450   0.0000000000
C          C       0.13957   0.75931   0.10780   0.0000000000
C          C       0.10172   0.73425   0.10160   0.0000000000
H          H       0.08620   0.73040   0.14300   0.0000000000
C          C       0.08673   0.71478   0.03370   0.0000000000
H          H       0.06140   0.69810   0.03100   0.0000000000
C          C       0.15647   0.77843   0.18090   0.0000000000
C          C       0.18836   0.81341   0.18170   0.0000000000
H          H       0.19870   0.82520   0.13560   0.0000000000
C          C       0.21700   0.67840   0.71780   0.0000000000
H          H       0.21290   0.69670   0.69740   0.0000000000
C          C       0.25200   0.68300   0.71700   0.0000000000
H          H       0.27150   0.70410   0.69470   0.0000000000
C          C       0.22910   0.62340   0.77580   0.0000000000
H          H       0.23280   0.60440   0.79340   0.0000000000
C          C       0.19389   0.61870   0.77620   0.0000000000
H          H       0.17420   0.59660   0.79460   0.0000000000
Zn         Zn      0.40887   0.47857   0.75000   0.0000000000
Zn         Zn      0.32140   0.42688   0.75000   0.0000000000
O          O       0.36837   0.42712   0.75000   0.0000000000
O          O       0.33005   0.47651   0.75000   0.0000000000
O          O       0.39180   0.51371   0.75000   0.0000000000
C          C       0.37170   0.34263   0.75000   0.0000000000
C          C       0.35873   0.50747   0.75000   0.0000000000
C          C       0.35421   0.54155   0.75000   0.0000000000
C          C       0.34434   0.60319   0.75000   0.0000000000
C          C       0.33839   0.63596   0.75000   0.0000000000
C          C       0.30294   0.63107   0.75000   0.0000000000
H          H       0.28270   0.60710   0.75000   0.0000000000
Zn         Zn      0.52143   0.93030   0.75000   0.0000000000
Zn         Zn      0.57312   0.89452   0.75000   0.0000000000
O          O       0.57288   0.94125   0.75000   0.0000000000
O          O       0.52349   0.85354   0.75000   0.0000000000
O          O       0.48629   0.87809   0.75000   0.0000000000
C          C       0.65737   0.02907   0.75000   0.0000000000
C          C       0.49253   0.85126   0.75000   0.0000000000
C          C       0.45845   0.81266   0.75000   0.0000000000
C          C       0.39681   0.74115   0.75000   0.0000000000
C          C       0.36404   0.70243   0.75000   0.0000000000
C          C       0.36893   0.67187   0.75000   0.0000000000
H          H       0.39290   0.67560   0.75000   0.0000000000
Zn         Zn      0.06970   0.59113   0.75000   0.0000000000
Zn         Zn      0.10548   0.67860   0.75000   0.0000000000
O          O       0.05875   0.63163   0.75000   0.0000000000
O          O       0.14646   0.66995   0.75000   0.0000000000
O          O       0.12191   0.60820   0.75000   0.0000000000
C          C       0.97093   0.62830   0.75000   0.0000000000
C          C       0.14874   0.64127   0.75000   0.0000000000
C          C       0.18734   0.64579   0.75000   0.0000000000
C          C       0.25885   0.65566   0.75000   0.0000000000
C          C       0.29757   0.66161   0.75000   0.0000000000
C          C       0.32813   0.69706   0.75000   0.0000000000
H          H       0.32440   0.71730   0.75000   0.0000000000
Zn         Zn      0.59113   0.52143   0.25000   0.0000000000
Zn         Zn      0.67860   0.57312   0.25000   0.0000000000
O          O       0.63163   0.57288   0.25000   0.0000000000
O          O       0.66995   0.52349   0.25000   0.0000000000
O          O       0.60820   0.48629   0.25000   0.0000000000
C          C       0.62830   0.65737   0.25000   0.0000000000
C          C       0.64127   0.49253   0.25000   0.0000000000
C          C       0.64579   0.45845   0.25000   0.0000000000
C          C       0.65566   0.39681   0.25000   0.0000000000
C          C       0.66161   0.36404   0.25000   0.0000000000
C          C       0.69706   0.36893   0.25000   0.0000000000
H          H       0.71730   0.39290   0.25000   0.0000000000
Zn         Zn      0.47857   0.06970   0.25000   0.0000000000
Zn         Zn      0.42688   0.10548   0.25000   0.0000000000
O          O       0.42712   0.05875   0.25000   0.0000000000
O          O       0.47651   0.14646   0.25000   0.0000000000
O          O       0.51371   0.12191   0.25000   0.0000000000
C          C       0.34263   0.97093   0.25000   0.0000000000
C          C       0.50747   0.14874   0.25000   0.0000000000
C          C       0.54155   0.18734   0.25000   0.0000000000
C          C       0.60319   0.25885   0.25000   0.0000000000
C          C       0.63596   0.29757   0.25000   0.0000000000
C          C       0.63107   0.32813   0.25000   0.0000000000
H          H       0.60710   0.32440   0.25000   0.0000000000
Zn         Zn      0.93030   0.40887   0.25000   0.0000000000
Zn         Zn      0.89452   0.32140   0.25000   0.0000000000
O          O       0.94125   0.36837   0.25000   0.0000000000
O          O       0.85354   0.33005   0.25000   0.0000000000
O          O       0.87809   0.39180   0.25000   0.0000000000
C          C       0.02907   0.37170   0.25000   0.0000000000
C          C       0.85126   0.35873   0.25000   0.0000000000
C          C       0.81266   0.35421   0.25000   0.0000000000
C          C       0.74115   0.34434   0.25000   0.0000000000
C          C       0.70243   0.33839   0.25000   0.0000000000
C          C       0.67187   0.30294   0.25000   0.0000000000
H          H       0.67560   0.28270   0.25000   0.0000000000
C          C       0.23818   0.37940   0.25000   0.0000000000
H          H       0.26150   0.38130   0.25000   0.0000000000
C          C       0.16897   0.37390   0.25000   0.0000000000
C          C       0.13259   0.37260   0.25000   0.0000000000
C          C       0.06457   0.37122   0.25000   0.0000000000
C          C       0.62060   0.85878   0.25000   0.0000000000
H          H       0.61870   0.88020   0.25000   0.0000000000
C          C       0.62610   0.79507   0.25000   0.0000000000
C          C       0.62740   0.75999   0.25000   0.0000000000
C          C       0.62878   0.69335   0.25000   0.0000000000
C          C       0.14122   0.76182   0.25000   0.0000000000
H          H       0.11980   0.73850   0.25000   0.0000000000
C          C       0.20493   0.83103   0.25000   0.0000000000
C          C       0.24001   0.86741   0.25000   0.0000000000
C          C       0.30665   0.93543   0.25000   0.0000000000
C          C       0.76182   0.62060   0.75000   0.0000000000
H          H       0.73850   0.61870   0.75000   0.0000000000
C          C       0.83103   0.62610   0.75000   0.0000000000
C          C       0.86741   0.62740   0.75000   0.0000000000
C          C       0.93543   0.62878   0.75000   0.0000000000
C          C       0.37940   0.14122   0.75000   0.0000000000
H          H       0.38130   0.11980   0.75000   0.0000000000
C          C       0.37390   0.20493   0.75000   0.0000000000
C          C       0.37260   0.24001   0.75000   0.0000000000
C          C       0.37122   0.30665   0.75000   0.0000000000
C          C       0.85878   0.23818   0.75000   0.0000000000
H          H       0.88020   0.26150   0.75000   0.0000000000
C          C       0.79507   0.16897   0.75000   0.0000000000
C          C       0.75999   0.13259   0.75000   0.0000000000
C          C       0.69335   0.06457   0.75000   0.0000000000
